
---------- Begin Simulation Statistics ----------
sim_seconds                                  0.020481                       # Number of seconds simulated
sim_ticks                                 20481002500                       # Number of ticks simulated
final_tick                                20481002500                       # Number of ticks from beginning of simulation (restored from checkpoints and never reset)
sim_freq                                 1000000000000                       # Frequency of simulated ticks
host_inst_rate                                  76929                       # Simulator instruction rate (inst/s)
host_op_rate                                   147727                       # Simulator op (including micro ops) rate (op/s)
host_tick_rate                               70048061                       # Simulator tick rate (ticks/s)
host_mem_usage                                4868756                       # Number of bytes of host memory used
host_seconds                                   292.39                       # Real time elapsed on the host
sim_insts                                    22492750                       # Number of instructions simulated
sim_ops                                      43193177                       # Number of ops (including micro ops) simulated
system.voltage_domain.voltage                       1                       # Voltage in Volts
system.clk_domain.clock                          1000                       # Clock period in ticks
system.mem_ctrls.pwrStateResidencyTicks::UNDEFINED  20481002500                       # Cumulative time (in ticks) in various power states
system.mem_ctrls.bytes_read::ruby.dir_cntrl0      1606336                       # Number of bytes read from this memory
system.mem_ctrls.bytes_read::total            1606336                       # Number of bytes read from this memory
system.mem_ctrls.bytes_written::ruby.dir_cntrl0        16384                       # Number of bytes written to this memory
system.mem_ctrls.bytes_written::total           16384                       # Number of bytes written to this memory
system.mem_ctrls.num_reads::ruby.dir_cntrl0        25099                       # Number of read requests responded to by this memory
system.mem_ctrls.num_reads::total               25099                       # Number of read requests responded to by this memory
system.mem_ctrls.num_writes::ruby.dir_cntrl0          256                       # Number of write requests responded to by this memory
system.mem_ctrls.num_writes::total                256                       # Number of write requests responded to by this memory
system.mem_ctrls.bw_read::ruby.dir_cntrl0     78430536                       # Total read bandwidth from this memory (bytes/s)
system.mem_ctrls.bw_read::total              78430536                       # Total read bandwidth from this memory (bytes/s)
system.mem_ctrls.bw_write::ruby.dir_cntrl0       799961                       # Write bandwidth from this memory (bytes/s)
system.mem_ctrls.bw_write::total               799961                       # Write bandwidth from this memory (bytes/s)
system.mem_ctrls.bw_total::ruby.dir_cntrl0     79230497                       # Total bandwidth to/from this memory (bytes/s)
system.mem_ctrls.bw_total::total             79230497                       # Total bandwidth to/from this memory (bytes/s)
system.mem_ctrls.readReqs                       25099                       # Number of read requests accepted
system.mem_ctrls.writeReqs                        256                       # Number of write requests accepted
system.mem_ctrls.readBursts                     25099                       # Number of DRAM read bursts, including those serviced by the write queue
system.mem_ctrls.writeBursts                      256                       # Number of DRAM write bursts, including those merged in the write queue
system.mem_ctrls.bytesReadDRAM                1606336                       # Total number of bytes read from DRAM
system.mem_ctrls.bytesReadWrQ                       0                       # Total number of bytes read from write queue
system.mem_ctrls.bytesWritten                   16384                       # Total number of bytes written to DRAM
system.mem_ctrls.bytesReadSys                 1606336                       # Total read bytes from the system interface side
system.mem_ctrls.bytesWrittenSys                16384                       # Total written bytes from the system interface side
system.mem_ctrls.servicedByWrQ                      0                       # Number of DRAM read bursts serviced by the write queue
system.mem_ctrls.mergedWrBursts                     0                       # Number of DRAM write bursts merged with an existing one
system.mem_ctrls.neitherReadNorWriteReqs            0                       # Number of requests that are neither read nor write
system.mem_ctrls.perBankRdBursts::0               366                       # Per bank write bursts
system.mem_ctrls.perBankRdBursts::1              2403                       # Per bank write bursts
system.mem_ctrls.perBankRdBursts::2               356                       # Per bank write bursts
system.mem_ctrls.perBankRdBursts::3               355                       # Per bank write bursts
system.mem_ctrls.perBankRdBursts::4               351                       # Per bank write bursts
system.mem_ctrls.perBankRdBursts::5               357                       # Per bank write bursts
system.mem_ctrls.perBankRdBursts::6               359                       # Per bank write bursts
system.mem_ctrls.perBankRdBursts::7              9033                       # Per bank write bursts
system.mem_ctrls.perBankRdBursts::8               357                       # Per bank write bursts
system.mem_ctrls.perBankRdBursts::9               345                       # Per bank write bursts
system.mem_ctrls.perBankRdBursts::10              352                       # Per bank write bursts
system.mem_ctrls.perBankRdBursts::11              356                       # Per bank write bursts
system.mem_ctrls.perBankRdBursts::12              359                       # Per bank write bursts
system.mem_ctrls.perBankRdBursts::13              360                       # Per bank write bursts
system.mem_ctrls.perBankRdBursts::14              359                       # Per bank write bursts
system.mem_ctrls.perBankRdBursts::15             9031                       # Per bank write bursts
system.mem_ctrls.perBankWrBursts::0                 0                       # Per bank write bursts
system.mem_ctrls.perBankWrBursts::1                 0                       # Per bank write bursts
system.mem_ctrls.perBankWrBursts::2                 0                       # Per bank write bursts
system.mem_ctrls.perBankWrBursts::3                 0                       # Per bank write bursts
system.mem_ctrls.perBankWrBursts::4                 0                       # Per bank write bursts
system.mem_ctrls.perBankWrBursts::5                 0                       # Per bank write bursts
system.mem_ctrls.perBankWrBursts::6                 0                       # Per bank write bursts
system.mem_ctrls.perBankWrBursts::7               128                       # Per bank write bursts
system.mem_ctrls.perBankWrBursts::8                 0                       # Per bank write bursts
system.mem_ctrls.perBankWrBursts::9                 0                       # Per bank write bursts
system.mem_ctrls.perBankWrBursts::10                0                       # Per bank write bursts
system.mem_ctrls.perBankWrBursts::11                0                       # Per bank write bursts
system.mem_ctrls.perBankWrBursts::12                0                       # Per bank write bursts
system.mem_ctrls.perBankWrBursts::13                0                       # Per bank write bursts
system.mem_ctrls.perBankWrBursts::14                0                       # Per bank write bursts
system.mem_ctrls.perBankWrBursts::15              128                       # Per bank write bursts
system.mem_ctrls.numRdRetry                         0                       # Number of times read queue was full causing retry
system.mem_ctrls.numWrRetry                       164                       # Number of times write queue was full causing retry
system.mem_ctrls.totGap                   20480557000                       # Total gap between requests
system.mem_ctrls.readPktSize::0                     0                       # Read request sizes (log2)
system.mem_ctrls.readPktSize::1                     0                       # Read request sizes (log2)
system.mem_ctrls.readPktSize::2                     0                       # Read request sizes (log2)
system.mem_ctrls.readPktSize::3                     0                       # Read request sizes (log2)
system.mem_ctrls.readPktSize::4                     0                       # Read request sizes (log2)
system.mem_ctrls.readPktSize::5                     0                       # Read request sizes (log2)
system.mem_ctrls.readPktSize::6                 25099                       # Read request sizes (log2)
system.mem_ctrls.writePktSize::0                    0                       # Write request sizes (log2)
system.mem_ctrls.writePktSize::1                    0                       # Write request sizes (log2)
system.mem_ctrls.writePktSize::2                    0                       # Write request sizes (log2)
system.mem_ctrls.writePktSize::3                    0                       # Write request sizes (log2)
system.mem_ctrls.writePktSize::4                    0                       # Write request sizes (log2)
system.mem_ctrls.writePktSize::5                    0                       # Write request sizes (log2)
system.mem_ctrls.writePktSize::6                  256                       # Write request sizes (log2)
system.mem_ctrls.rdQLenPdf::0                   24231                       # What read queue length does an incoming req see
system.mem_ctrls.rdQLenPdf::1                     688                       # What read queue length does an incoming req see
system.mem_ctrls.rdQLenPdf::2                     136                       # What read queue length does an incoming req see
system.mem_ctrls.rdQLenPdf::3                      35                       # What read queue length does an incoming req see
system.mem_ctrls.rdQLenPdf::4                       8                       # What read queue length does an incoming req see
system.mem_ctrls.rdQLenPdf::5                       1                       # What read queue length does an incoming req see
system.mem_ctrls.rdQLenPdf::6                       0                       # What read queue length does an incoming req see
system.mem_ctrls.rdQLenPdf::7                       0                       # What read queue length does an incoming req see
system.mem_ctrls.rdQLenPdf::8                       0                       # What read queue length does an incoming req see
system.mem_ctrls.rdQLenPdf::9                       0                       # What read queue length does an incoming req see
system.mem_ctrls.rdQLenPdf::10                      0                       # What read queue length does an incoming req see
system.mem_ctrls.rdQLenPdf::11                      0                       # What read queue length does an incoming req see
system.mem_ctrls.rdQLenPdf::12                      0                       # What read queue length does an incoming req see
system.mem_ctrls.rdQLenPdf::13                      0                       # What read queue length does an incoming req see
system.mem_ctrls.rdQLenPdf::14                      0                       # What read queue length does an incoming req see
system.mem_ctrls.rdQLenPdf::15                      0                       # What read queue length does an incoming req see
system.mem_ctrls.rdQLenPdf::16                      0                       # What read queue length does an incoming req see
system.mem_ctrls.rdQLenPdf::17                      0                       # What read queue length does an incoming req see
system.mem_ctrls.rdQLenPdf::18                      0                       # What read queue length does an incoming req see
system.mem_ctrls.rdQLenPdf::19                      0                       # What read queue length does an incoming req see
system.mem_ctrls.rdQLenPdf::20                      0                       # What read queue length does an incoming req see
system.mem_ctrls.rdQLenPdf::21                      0                       # What read queue length does an incoming req see
system.mem_ctrls.rdQLenPdf::22                      0                       # What read queue length does an incoming req see
system.mem_ctrls.rdQLenPdf::23                      0                       # What read queue length does an incoming req see
system.mem_ctrls.rdQLenPdf::24                      0                       # What read queue length does an incoming req see
system.mem_ctrls.rdQLenPdf::25                      0                       # What read queue length does an incoming req see
system.mem_ctrls.rdQLenPdf::26                      0                       # What read queue length does an incoming req see
system.mem_ctrls.rdQLenPdf::27                      0                       # What read queue length does an incoming req see
system.mem_ctrls.rdQLenPdf::28                      0                       # What read queue length does an incoming req see
system.mem_ctrls.rdQLenPdf::29                      0                       # What read queue length does an incoming req see
system.mem_ctrls.rdQLenPdf::30                      0                       # What read queue length does an incoming req see
system.mem_ctrls.rdQLenPdf::31                      0                       # What read queue length does an incoming req see
system.mem_ctrls.wrQLenPdf::0                       1                       # What write queue length does an incoming req see
system.mem_ctrls.wrQLenPdf::1                       1                       # What write queue length does an incoming req see
system.mem_ctrls.wrQLenPdf::2                       1                       # What write queue length does an incoming req see
system.mem_ctrls.wrQLenPdf::3                       1                       # What write queue length does an incoming req see
system.mem_ctrls.wrQLenPdf::4                       1                       # What write queue length does an incoming req see
system.mem_ctrls.wrQLenPdf::5                       1                       # What write queue length does an incoming req see
system.mem_ctrls.wrQLenPdf::6                       1                       # What write queue length does an incoming req see
system.mem_ctrls.wrQLenPdf::7                       1                       # What write queue length does an incoming req see
system.mem_ctrls.wrQLenPdf::8                       1                       # What write queue length does an incoming req see
system.mem_ctrls.wrQLenPdf::9                       1                       # What write queue length does an incoming req see
system.mem_ctrls.wrQLenPdf::10                      1                       # What write queue length does an incoming req see
system.mem_ctrls.wrQLenPdf::11                      1                       # What write queue length does an incoming req see
system.mem_ctrls.wrQLenPdf::12                      1                       # What write queue length does an incoming req see
system.mem_ctrls.wrQLenPdf::13                      1                       # What write queue length does an incoming req see
system.mem_ctrls.wrQLenPdf::14                      3                       # What write queue length does an incoming req see
system.mem_ctrls.wrQLenPdf::15                      4                       # What write queue length does an incoming req see
system.mem_ctrls.wrQLenPdf::16                      6                       # What write queue length does an incoming req see
system.mem_ctrls.wrQLenPdf::17                      5                       # What write queue length does an incoming req see
system.mem_ctrls.wrQLenPdf::18                      3                       # What write queue length does an incoming req see
system.mem_ctrls.wrQLenPdf::19                      5                       # What write queue length does an incoming req see
system.mem_ctrls.wrQLenPdf::20                      5                       # What write queue length does an incoming req see
system.mem_ctrls.wrQLenPdf::21                      3                       # What write queue length does an incoming req see
system.mem_ctrls.wrQLenPdf::22                      5                       # What write queue length does an incoming req see
system.mem_ctrls.wrQLenPdf::23                      5                       # What write queue length does an incoming req see
system.mem_ctrls.wrQLenPdf::24                      3                       # What write queue length does an incoming req see
system.mem_ctrls.wrQLenPdf::25                      5                       # What write queue length does an incoming req see
system.mem_ctrls.wrQLenPdf::26                      4                       # What write queue length does an incoming req see
system.mem_ctrls.wrQLenPdf::27                      4                       # What write queue length does an incoming req see
system.mem_ctrls.wrQLenPdf::28                      5                       # What write queue length does an incoming req see
system.mem_ctrls.wrQLenPdf::29                      4                       # What write queue length does an incoming req see
system.mem_ctrls.wrQLenPdf::30                      4                       # What write queue length does an incoming req see
system.mem_ctrls.wrQLenPdf::31                    169                       # What write queue length does an incoming req see
system.mem_ctrls.bytesPerActivate::samples        25355                       # Bytes accessed per row activation
system.mem_ctrls.bytesPerActivate::mean            64                       # Bytes accessed per row activation
system.mem_ctrls.bytesPerActivate::gmean    64.000000                       # Bytes accessed per row activation
system.mem_ctrls.bytesPerActivate::64-71        25355    100.00%    100.00% # Bytes accessed per row activation
system.mem_ctrls.bytesPerActivate::total        25355                       # Bytes accessed per row activation
system.mem_ctrls.rdPerTurnAround::samples            2                       # Reads before turning the bus around for writes
system.mem_ctrls.rdPerTurnAround::mean           2765                       # Reads before turning the bus around for writes
system.mem_ctrls.rdPerTurnAround::gmean     74.357246                       # Reads before turning the bus around for writes
system.mem_ctrls.rdPerTurnAround::stdev   3908.886286                       # Reads before turning the bus around for writes
system.mem_ctrls.rdPerTurnAround::0-255             1     50.00%     50.00% # Reads before turning the bus around for writes
system.mem_ctrls.rdPerTurnAround::5376-5631            1     50.00%    100.00% # Reads before turning the bus around for writes
system.mem_ctrls.rdPerTurnAround::total             2                       # Reads before turning the bus around for writes
system.mem_ctrls.wrPerTurnAround::samples            2                       # Writes before turning the bus around for reads
system.mem_ctrls.wrPerTurnAround::mean            128                       # Writes before turning the bus around for reads
system.mem_ctrls.wrPerTurnAround::gmean     83.516465                       # Writes before turning the bus around for reads
system.mem_ctrls.wrPerTurnAround::stdev    137.178716                       # Writes before turning the bus around for reads
system.mem_ctrls.wrPerTurnAround::24-31             1     50.00%     50.00% # Writes before turning the bus around for reads
system.mem_ctrls.wrPerTurnAround::224-231            1     50.00%    100.00% # Writes before turning the bus around for reads
system.mem_ctrls.wrPerTurnAround::total             2                       # Writes before turning the bus around for reads
system.mem_ctrls.totQLat                   2211828940                       # Total ticks spent queuing
system.mem_ctrls.totMemAccLat              2682435190                       # Total ticks spent from burst creation until serviced by the DRAM
system.mem_ctrls.totBusLat                  125495000                       # Total ticks spent in databus transfers
system.mem_ctrls.avgQLat                     88124.19                       # Average queueing delay per DRAM burst
system.mem_ctrls.avgBusLat                    5000.00                       # Average bus latency per DRAM burst
system.mem_ctrls.avgMemAccLat               106874.19                       # Average memory access latency per DRAM burst
system.mem_ctrls.avgRdBW                        78.43                       # Average DRAM read bandwidth in MiByte/s
system.mem_ctrls.avgWrBW                         0.80                       # Average achieved write bandwidth in MiByte/s
system.mem_ctrls.avgRdBWSys                     78.43                       # Average system read bandwidth in MiByte/s
system.mem_ctrls.avgWrBWSys                      0.80                       # Average system write bandwidth in MiByte/s
system.mem_ctrls.peakBW                      12800.00                       # Theoretical peak bandwidth in MiByte/s
system.mem_ctrls.busUtil                         0.62                       # Data bus utilization in percentage
system.mem_ctrls.busUtilRead                     0.61                       # Data bus utilization in percentage for reads
system.mem_ctrls.busUtilWrite                    0.01                       # Data bus utilization in percentage for writes
system.mem_ctrls.avgRdQLen                       1.00                       # Average read queue length when enqueuing
system.mem_ctrls.avgWrQLen                      30.03                       # Average write queue length when enqueuing
system.mem_ctrls.readRowHits                        0                       # Number of row buffer hits during reads
system.mem_ctrls.writeRowHits                       0                       # Number of row buffer hits during writes
system.mem_ctrls.readRowHitRate                  0.00                       # Row buffer hit rate for reads
system.mem_ctrls.writeRowHitRate                 0.00                       # Row buffer hit rate for writes
system.mem_ctrls.avgGap                     807752.20                       # Average gap between requests
system.mem_ctrls.pageHitRate                     0.00                       # Row buffer hit rate, read and write combined
system.mem_ctrls_0.actEnergy                 97875120                       # Energy for activate commands per rank (pJ)
system.mem_ctrls_0.preEnergy                 52021860                       # Energy for precharge commands per rank (pJ)
system.mem_ctrls_0.readEnergy                96961200                       # Energy for read commands per rank (pJ)
system.mem_ctrls_0.writeEnergy                 668160                       # Energy for write commands per rank (pJ)
system.mem_ctrls_0.refreshEnergy         2216391840.000000                       # Energy for refresh commands per rank (pJ)
system.mem_ctrls_0.actBackEnergy            621698430                       # Energy for active background per rank (pJ)
system.mem_ctrls_0.preBackEnergy            256648800                       # Energy for precharge background per rank (pJ)
system.mem_ctrls_0.actPowerDownEnergy               0                       # Energy for active power-down per rank (pJ)
system.mem_ctrls_0.prePowerDownEnergy      6229490880                       # Energy for precharge power-down per rank (pJ)
system.mem_ctrls_0.selfRefreshEnergy       1281574320                       # Energy for self refresh per rank (pJ)
system.mem_ctrls_0.totalEnergy            10860769920                       # Total energy per rank (pJ)
system.mem_ctrls_0.averagePower            530.285074                       # Core power per rank (mW)
system.mem_ctrls_0.totalIdleTime          18431384499                       # Total Idle time Per DRAM Rank
system.mem_ctrls_0.memoryStateTime::IDLE    436983000                       # Time in different power states
system.mem_ctrls_0.memoryStateTime::REF     950856000                       # Time in different power states
system.mem_ctrls_0.memoryStateTime::SREF   2210006250                       # Time in different power states
system.mem_ctrls_0.memoryStateTime::PRE_PDN  16222650499                       # Time in different power states
system.mem_ctrls_0.memoryStateTime::ACT     660506751                       # Time in different power states
system.mem_ctrls_0.memoryStateTime::ACT_PDN            0                       # Time in different power states
system.mem_ctrls_1.actEnergy                 83159580                       # Energy for activate commands per rank (pJ)
system.mem_ctrls_1.preEnergy                 44200365                       # Energy for precharge commands per rank (pJ)
system.mem_ctrls_1.readEnergy                82245660                       # Energy for read commands per rank (pJ)
system.mem_ctrls_1.writeEnergy                 668160                       # Energy for write commands per rank (pJ)
system.mem_ctrls_1.refreshEnergy         2044907280.000000                       # Energy for refresh commands per rank (pJ)
system.mem_ctrls_1.actBackEnergy            557800290                       # Energy for active background per rank (pJ)
system.mem_ctrls_1.preBackEnergy            225548160                       # Energy for precharge background per rank (pJ)
system.mem_ctrls_1.actPowerDownEnergy               0                       # Energy for active power-down per rank (pJ)
system.mem_ctrls_1.prePowerDownEnergy      5928437280                       # Energy for precharge power-down per rank (pJ)
system.mem_ctrls_1.selfRefreshEnergy       1434442920                       # Energy for self refresh per rank (pJ)
system.mem_ctrls_1.totalEnergy            10406302995                       # Total energy per rank (pJ)
system.mem_ctrls_1.averagePower            508.095392                       # Core power per rank (mW)
system.mem_ctrls_1.totalIdleTime          18659220750                       # Total Idle time Per DRAM Rank
system.mem_ctrls_1.memoryStateTime::IDLE    382642000                       # Time in different power states
system.mem_ctrls_1.memoryStateTime::REF     877572000                       # Time in different power states
system.mem_ctrls_1.memoryStateTime::SREF   3220915250                       # Time in different power states
system.mem_ctrls_1.memoryStateTime::PRE_PDN  15438690250                       # Time in different power states
system.mem_ctrls_1.memoryStateTime::ACT     561183000                       # Time in different power states
system.mem_ctrls_1.memoryStateTime::ACT_PDN            0                       # Time in different power states
system.pwrStateResidencyTicks::UNDEFINED  20481002500                       # Cumulative time (in ticks) in various power states
system.cpu.branchPred.lookups                 5420519                       # Number of BP lookups
system.cpu.branchPred.condPredicted           5420519                       # Number of conditional branches predicted
system.cpu.branchPred.condIncorrect            117701                       # Number of conditional branches incorrect
system.cpu.branchPred.BTBLookups              2901866                       # Number of BTB lookups
system.cpu.branchPred.BTBHits                       0                       # Number of BTB hits
system.cpu.branchPred.BTBCorrect                    0                       # Number of correct BTB predictions (this stat may not work properly.
system.cpu.branchPred.BTBHitPct              0.000000                       # BTB Hit Percentage
system.cpu.branchPred.usedRAS                  427885                       # Number of times the RAS was used to get a target.
system.cpu.branchPred.RASInCorrect              63723                       # Number of incorrect RAS predictions.
system.cpu.branchPred.indirectLookups         2901866                       # Number of indirect predictor lookups.
system.cpu.branchPred.indirectHits            2351036                       # Number of indirect target hits.
system.cpu.branchPred.indirectMisses           550830                       # Number of indirect misses.
system.cpu.branchPredindirectMispredicted        44285                       # Number of mispredicted indirect branches.
system.cpu_voltage_domain.voltage                   1                       # Voltage in Volts
system.cpu_clk_domain.clock                       500                       # Clock period in ticks
system.cpu.dtb.walker.pwrStateResidencyTicks::UNDEFINED  20481002500                       # Cumulative time (in ticks) in various power states
system.cpu.dtb.rdAccesses                     7672199                       # TLB accesses on read requests
system.cpu.dtb.wrAccesses                     4350461                       # TLB accesses on write requests
system.cpu.dtb.rdMisses                            84                       # TLB misses on read requests
system.cpu.dtb.wrMisses                         36916                       # TLB misses on write requests
system.cpu.dtb.spec_tlb_misses                      0                       # TLB misses on speculative memory requests
system.cpu.apic_clk_domain.clock                 8000                       # Clock period in ticks
system.cpu.interrupts.pwrStateResidencyTicks::UNDEFINED  20481002500                       # Cumulative time (in ticks) in various power states
system.cpu.itb.walker.pwrStateResidencyTicks::UNDEFINED  20481002500                       # Cumulative time (in ticks) in various power states
system.cpu.itb.rdAccesses                           0                       # TLB accesses on read requests
system.cpu.itb.wrAccesses                     3985156                       # TLB accesses on write requests
system.cpu.itb.rdMisses                             0                       # TLB misses on read requests
system.cpu.itb.wrMisses                           280                       # TLB misses on write requests
system.cpu.itb.spec_tlb_misses                      0                       # TLB misses on speculative memory requests
system.cpu.workload.numSyscalls                    87                       # Number of system calls
system.cpu.pwrStateResidencyTicks::ON     20481002500                       # Cumulative time (in ticks) in various power states
system.cpu.numCycles                         40962006                       # number of cpu cycles simulated
system.cpu.numWorkItemsStarted                      0                       # number of work items this cpu started
system.cpu.numWorkItemsCompleted                    0                       # number of work items this cpu completed
system.cpu.fetch.icacheStallCycles            4096576                       # Number of cycles fetch is stalled on an Icache miss
system.cpu.fetch.Insts                       30505234                       # Number of instructions fetch has processed
system.cpu.fetch.Branches                     5420519                       # Number of branches that fetch encountered
system.cpu.fetch.predictedBranches            2778921                       # Number of branches that fetch has predicted taken
system.cpu.fetch.Cycles                      36643901                       # Number of cycles fetch has run and was not squashing or blocked
system.cpu.fetch.SquashCycles                  275018                       # Number of cycles fetch has spent squashing
system.cpu.fetch.MiscStallCycles                12421                       # Number of cycles fetch has spent waiting on interrupts, or bad addresses, or out of MSHRs
system.cpu.fetch.PendingTrapStallCycles          1906                       # Number of stall cycles due to pending traps
system.cpu.fetch.PendingQuiesceStallCycles          808                       # Number of stall cycles due to pending quiesce instructions
system.cpu.fetch.IcacheWaitRetryStallCycles         8158                       # Number of stall cycles due to full MSHR
system.cpu.fetch.CacheLines                   3984972                       # Number of cache lines fetched
system.cpu.fetch.IcacheSquashes                 29897                       # Number of outstanding Icache misses that were squashed
system.cpu.fetch.rateDist::samples           40901279                       # Number of instructions fetched each cycle (Total)
system.cpu.fetch.rateDist::mean              1.420094                       # Number of instructions fetched each cycle (Total)
system.cpu.fetch.rateDist::stdev             2.763343                       # Number of instructions fetched each cycle (Total)
system.cpu.fetch.rateDist::underflows               0      0.00%      0.00% # Number of instructions fetched each cycle (Total)
system.cpu.fetch.rateDist::0                 30771952     75.23%     75.23% # Number of instructions fetched each cycle (Total)
system.cpu.fetch.rateDist::1                   669888      1.64%     76.87% # Number of instructions fetched each cycle (Total)
system.cpu.fetch.rateDist::2                   880759      2.15%     79.03% # Number of instructions fetched each cycle (Total)
system.cpu.fetch.rateDist::3                   977802      2.39%     81.42% # Number of instructions fetched each cycle (Total)
system.cpu.fetch.rateDist::4                   815160      1.99%     83.41% # Number of instructions fetched each cycle (Total)
system.cpu.fetch.rateDist::5                   892679      2.18%     85.59% # Number of instructions fetched each cycle (Total)
system.cpu.fetch.rateDist::6                   772186      1.89%     87.48% # Number of instructions fetched each cycle (Total)
system.cpu.fetch.rateDist::7                   605131      1.48%     88.96% # Number of instructions fetched each cycle (Total)
system.cpu.fetch.rateDist::8                  4515722     11.04%    100.00% # Number of instructions fetched each cycle (Total)
system.cpu.fetch.rateDist::overflows                0      0.00%    100.00% # Number of instructions fetched each cycle (Total)
system.cpu.fetch.rateDist::min_value                0                       # Number of instructions fetched each cycle (Total)
system.cpu.fetch.rateDist::max_value                8                       # Number of instructions fetched each cycle (Total)
system.cpu.fetch.rateDist::total             40901279                       # Number of instructions fetched each cycle (Total)
system.cpu.fetch.branchRate                  0.132330                       # Number of branch fetches per cycle
system.cpu.fetch.rate                        0.744720                       # Number of inst fetches per cycle
system.cpu.decode.IdleCycles                  2421688                       # Number of cycles decode is idle
system.cpu.decode.BlockedCycles              31189971                       # Number of cycles decode is blocked
system.cpu.decode.RunCycles                   2819390                       # Number of cycles decode is running
system.cpu.decode.UnblockCycles               4332721                       # Number of cycles decode is unblocking
system.cpu.decode.SquashCycles                 137509                       # Number of cycles decode is squashing
system.cpu.decode.DecodedInsts               54768441                       # Number of instructions handled by decode
system.cpu.rename.SquashCycles                 137509                       # Number of cycles rename is squashing
system.cpu.rename.IdleCycles                  3721454                       # Number of cycles rename is idle
system.cpu.rename.BlockCycles                12907989                       # Number of cycles rename is blocking
system.cpu.rename.serializeStallCycles        6639964                       # count of cycles rename stalled for serializing inst
system.cpu.rename.RunCycles                   5538650                       # Number of cycles rename is running
system.cpu.rename.UnblockCycles              11955713                       # Number of cycles rename is unblocking
system.cpu.rename.RenamedInsts               54085331                       # Number of instructions processed by rename
system.cpu.rename.ROBFullEvents                   706                       # Number of times rename has blocked due to ROB full
system.cpu.rename.IQFullEvents               11047899                       # Number of times rename has blocked due to IQ full
system.cpu.rename.LQFullEvents                  10812                       # Number of times rename has blocked due to LQ full
system.cpu.rename.SQFullEvents                 215919                       # Number of times rename has blocked due to SQ full
system.cpu.rename.RenamedOperands            61049091                       # Number of destination operands rename has renamed
system.cpu.rename.RenameLookups             136812138                       # Number of register rename lookups that rename has made
system.cpu.rename.int_rename_lookups         83165760                       # Number of integer rename lookups
system.cpu.rename.fp_rename_lookups           2168081                       # Number of floating rename lookups
system.cpu.rename.CommittedMaps              48932208                       # Number of HB maps that are committed
system.cpu.rename.UndoneMaps                 12116744                       # Number of HB maps that are undone due to squashing
system.cpu.rename.serializingInsts              69801                       # count of serializing insts renamed
system.cpu.rename.tempSerializingInsts            612                       # count of temporary serializing insts renamed
system.cpu.rename.skidInsts                  23318214                       # count of insts added to the skid buffer
system.cpu.memDep0.insertedLoads              7919584                       # Number of loads inserted to the mem dependence unit.
system.cpu.memDep0.insertedStores             4989357                       # Number of stores inserted to the mem dependence unit.
system.cpu.memDep0.conflictingLoads           1139023                       # Number of conflicting loads.
system.cpu.memDep0.conflictingStores           599732                       # Number of conflicting stores.
system.cpu.iq.iqInstsAdded                   53085754                       # Number of instructions added to the IQ (excludes non-spec)
system.cpu.iq.iqNonSpecInstsAdded               20719                       # Number of non-speculative instructions added to the IQ
system.cpu.iq.iqInstsIssued                  54904084                       # Number of instructions issued
system.cpu.iq.iqSquashedInstsIssued           1315648                       # Number of squashed instructions issued
system.cpu.iq.iqSquashedInstsExamined         9913175                       # Number of squashed instructions iterated over during squash; mainly for profiling
system.cpu.iq.iqSquashedOperandsExamined     20156701                       # Number of squashed operands that are examined and possibly removed from graph
system.cpu.iq.iqSquashedNonSpecRemoved           1157                       # Number of squashed non-spec instructions that were removed
system.cpu.iq.issued_per_cycle::samples      40901279                       # Number of insts issued each cycle
system.cpu.iq.issued_per_cycle::mean         1.342356                       # Number of insts issued each cycle
system.cpu.iq.issued_per_cycle::stdev        1.608531                       # Number of insts issued each cycle
system.cpu.iq.issued_per_cycle::underflows            0      0.00%      0.00% # Number of insts issued each cycle
system.cpu.iq.issued_per_cycle::0            17282079     42.25%     42.25% # Number of insts issued each cycle
system.cpu.iq.issued_per_cycle::1             9052853     22.13%     64.39% # Number of insts issued each cycle
system.cpu.iq.issued_per_cycle::2             6221978     15.21%     79.60% # Number of insts issued each cycle
system.cpu.iq.issued_per_cycle::3             3728601      9.12%     88.71% # Number of insts issued each cycle
system.cpu.iq.issued_per_cycle::4             2352970      5.75%     94.47% # Number of insts issued each cycle
system.cpu.iq.issued_per_cycle::5             1293666      3.16%     97.63% # Number of insts issued each cycle
system.cpu.iq.issued_per_cycle::6              596369      1.46%     99.09% # Number of insts issued each cycle
system.cpu.iq.issued_per_cycle::7              219056      0.54%     99.62% # Number of insts issued each cycle
system.cpu.iq.issued_per_cycle::8              153707      0.38%    100.00% # Number of insts issued each cycle
system.cpu.iq.issued_per_cycle::overflows            0      0.00%    100.00% # Number of insts issued each cycle
system.cpu.iq.issued_per_cycle::min_value            0                       # Number of insts issued each cycle
system.cpu.iq.issued_per_cycle::max_value            8                       # Number of insts issued each cycle
system.cpu.iq.issued_per_cycle::total        40901279                       # Number of insts issued each cycle
system.cpu.iq.fu_full::No_OpClass                   0      0.00%      0.00% # attempts to use FU when none available
system.cpu.iq.fu_full::IntAlu                  104491     16.72%     16.72% # attempts to use FU when none available
system.cpu.iq.fu_full::IntMult                      0      0.00%     16.72% # attempts to use FU when none available
system.cpu.iq.fu_full::IntDiv                       0      0.00%     16.72% # attempts to use FU when none available
system.cpu.iq.fu_full::FloatAdd                   175      0.03%     16.74% # attempts to use FU when none available
system.cpu.iq.fu_full::FloatCmp                     0      0.00%     16.74% # attempts to use FU when none available
system.cpu.iq.fu_full::FloatCvt                     0      0.00%     16.74% # attempts to use FU when none available
system.cpu.iq.fu_full::FloatMult                    0      0.00%     16.74% # attempts to use FU when none available
system.cpu.iq.fu_full::FloatMultAcc                 0      0.00%     16.74% # attempts to use FU when none available
system.cpu.iq.fu_full::FloatDiv                     0      0.00%     16.74% # attempts to use FU when none available
system.cpu.iq.fu_full::FloatMisc                    0      0.00%     16.74% # attempts to use FU when none available
system.cpu.iq.fu_full::FloatSqrt                    0      0.00%     16.74% # attempts to use FU when none available
system.cpu.iq.fu_full::SimdAdd                      0      0.00%     16.74% # attempts to use FU when none available
system.cpu.iq.fu_full::SimdAddAcc                   0      0.00%     16.74% # attempts to use FU when none available
system.cpu.iq.fu_full::SimdAlu                      0      0.00%     16.74% # attempts to use FU when none available
system.cpu.iq.fu_full::SimdCmp                      0      0.00%     16.74% # attempts to use FU when none available
system.cpu.iq.fu_full::SimdCvt                      0      0.00%     16.74% # attempts to use FU when none available
system.cpu.iq.fu_full::SimdMisc                     0      0.00%     16.74% # attempts to use FU when none available
system.cpu.iq.fu_full::SimdMult                     0      0.00%     16.74% # attempts to use FU when none available
system.cpu.iq.fu_full::SimdMultAcc                  0      0.00%     16.74% # attempts to use FU when none available
system.cpu.iq.fu_full::SimdShift                    0      0.00%     16.74% # attempts to use FU when none available
system.cpu.iq.fu_full::SimdShiftAcc                 0      0.00%     16.74% # attempts to use FU when none available
system.cpu.iq.fu_full::SimdSqrt                     0      0.00%     16.74% # attempts to use FU when none available
system.cpu.iq.fu_full::SimdFloatAdd                 0      0.00%     16.74% # attempts to use FU when none available
system.cpu.iq.fu_full::SimdFloatAlu                 0      0.00%     16.74% # attempts to use FU when none available
system.cpu.iq.fu_full::SimdFloatCmp                 0      0.00%     16.74% # attempts to use FU when none available
system.cpu.iq.fu_full::SimdFloatCvt                 0      0.00%     16.74% # attempts to use FU when none available
system.cpu.iq.fu_full::SimdFloatDiv                 0      0.00%     16.74% # attempts to use FU when none available
system.cpu.iq.fu_full::SimdFloatMisc                0      0.00%     16.74% # attempts to use FU when none available
system.cpu.iq.fu_full::SimdFloatMult                0      0.00%     16.74% # attempts to use FU when none available
system.cpu.iq.fu_full::SimdFloatMultAcc             0      0.00%     16.74% # attempts to use FU when none available
system.cpu.iq.fu_full::SimdFloatSqrt                0      0.00%     16.74% # attempts to use FU when none available
system.cpu.iq.fu_full::MemRead                 396126     63.37%     80.11% # attempts to use FU when none available
system.cpu.iq.fu_full::MemWrite                123863     19.81%     99.93% # attempts to use FU when none available
system.cpu.iq.fu_full::FloatMemRead               283      0.05%     99.97% # attempts to use FU when none available
system.cpu.iq.fu_full::FloatMemWrite              165      0.03%    100.00% # attempts to use FU when none available
system.cpu.iq.fu_full::IprAccess                    0      0.00%    100.00% # attempts to use FU when none available
system.cpu.iq.fu_full::InstPrefetch                 0      0.00%    100.00% # attempts to use FU when none available
system.cpu.iq.FU_type_0::No_OpClass            210574      0.38%      0.38% # Type of FU issued
system.cpu.iq.FU_type_0::IntAlu              35670592     64.97%     65.35% # Type of FU issued
system.cpu.iq.FU_type_0::IntMult               118315      0.22%     65.57% # Type of FU issued
system.cpu.iq.FU_type_0::IntDiv                123952      0.23%     65.79% # Type of FU issued
system.cpu.iq.FU_type_0::FloatAdd              944754      1.72%     67.51% # Type of FU issued
system.cpu.iq.FU_type_0::FloatCmp                   0      0.00%     67.51% # Type of FU issued
system.cpu.iq.FU_type_0::FloatCvt                  48      0.00%     67.51% # Type of FU issued
system.cpu.iq.FU_type_0::FloatMult                  0      0.00%     67.51% # Type of FU issued
system.cpu.iq.FU_type_0::FloatMultAcc               0      0.00%     67.51% # Type of FU issued
system.cpu.iq.FU_type_0::FloatDiv                   0      0.00%     67.51% # Type of FU issued
system.cpu.iq.FU_type_0::FloatMisc                  0      0.00%     67.51% # Type of FU issued
system.cpu.iq.FU_type_0::FloatSqrt                  0      0.00%     67.51% # Type of FU issued
system.cpu.iq.FU_type_0::SimdAdd                    0      0.00%     67.51% # Type of FU issued
system.cpu.iq.FU_type_0::SimdAddAcc                 0      0.00%     67.51% # Type of FU issued
system.cpu.iq.FU_type_0::SimdAlu                    0      0.00%     67.51% # Type of FU issued
system.cpu.iq.FU_type_0::SimdCmp                    0      0.00%     67.51% # Type of FU issued
system.cpu.iq.FU_type_0::SimdCvt                    0      0.00%     67.51% # Type of FU issued
system.cpu.iq.FU_type_0::SimdMisc                   0      0.00%     67.51% # Type of FU issued
system.cpu.iq.FU_type_0::SimdMult                   0      0.00%     67.51% # Type of FU issued
system.cpu.iq.FU_type_0::SimdMultAcc                0      0.00%     67.51% # Type of FU issued
system.cpu.iq.FU_type_0::SimdShift                  0      0.00%     67.51% # Type of FU issued
system.cpu.iq.FU_type_0::SimdShiftAcc               0      0.00%     67.51% # Type of FU issued
system.cpu.iq.FU_type_0::SimdSqrt                   0      0.00%     67.51% # Type of FU issued
system.cpu.iq.FU_type_0::SimdFloatAdd               0      0.00%     67.51% # Type of FU issued
system.cpu.iq.FU_type_0::SimdFloatAlu               0      0.00%     67.51% # Type of FU issued
system.cpu.iq.FU_type_0::SimdFloatCmp               0      0.00%     67.51% # Type of FU issued
system.cpu.iq.FU_type_0::SimdFloatCvt               0      0.00%     67.51% # Type of FU issued
system.cpu.iq.FU_type_0::SimdFloatDiv               0      0.00%     67.51% # Type of FU issued
system.cpu.iq.FU_type_0::SimdFloatMisc              0      0.00%     67.51% # Type of FU issued
system.cpu.iq.FU_type_0::SimdFloatMult              0      0.00%     67.51% # Type of FU issued
system.cpu.iq.FU_type_0::SimdFloatMultAcc            0      0.00%     67.51% # Type of FU issued
system.cpu.iq.FU_type_0::SimdFloatSqrt              0      0.00%     67.51% # Type of FU issued
system.cpu.iq.FU_type_0::MemRead             13190890     24.03%     91.54% # Type of FU issued
system.cpu.iq.FU_type_0::MemWrite             4377807      7.97%     99.51% # Type of FU issued
system.cpu.iq.FU_type_0::FloatMemRead          266184      0.48%    100.00% # Type of FU issued
system.cpu.iq.FU_type_0::FloatMemWrite            968      0.00%    100.00% # Type of FU issued
system.cpu.iq.FU_type_0::IprAccess                  0      0.00%    100.00% # Type of FU issued
system.cpu.iq.FU_type_0::InstPrefetch               0      0.00%    100.00% # Type of FU issued
system.cpu.iq.FU_type_0::total               54904084                       # Type of FU issued
system.cpu.iq.rate                           1.340366                       # Inst issue rate
system.cpu.iq.fu_busy_cnt                      625103                       # FU busy when requested
system.cpu.iq.fu_busy_rate                   0.011385                       # FU busy rate (busy events/executed inst)
system.cpu.iq.int_inst_queue_reads          149910548                       # Number of integer instruction queue reads
system.cpu.iq.int_inst_queue_writes          61813608                       # Number of integer instruction queue writes
system.cpu.iq.int_inst_queue_wakeup_accesses     45790092                       # Number of integer instruction queue wakeup accesses
system.cpu.iq.fp_inst_queue_reads             2739649                       # Number of floating instruction queue reads
system.cpu.iq.fp_inst_queue_writes            1225713                       # Number of floating instruction queue writes
system.cpu.iq.fp_inst_queue_wakeup_accesses      1208303                       # Number of floating instruction queue wakeup accesses
system.cpu.iq.vec_inst_queue_reads                  0                       # Number of vector instruction queue reads
system.cpu.iq.vec_inst_queue_writes                 0                       # Number of vector instruction queue writes
system.cpu.iq.vec_inst_queue_wakeup_accesses            0                       # Number of vector instruction queue wakeup accesses
system.cpu.iq.int_alu_accesses               53949084                       # Number of integer alu accesses
system.cpu.iq.fp_alu_accesses                 1369529                       # Number of floating point alu accesses
system.cpu.iq.vec_alu_accesses                      0                       # Number of vector alu accesses
system.cpu.iew.lsq.thread0.BWspecWindowExtensionMsgs        19490                       # Number of Messages Sent to L2 to extend the Spec Window every 200 cycles
system.cpu.iew.lsq.thread0.StorageSpecWindowInstallTable            3                       # Number of Lines That are Extra (L2 Installs but Still Stored in Table Speculatively)
system.cpu.iew.lsq.thread0.forwLoads           507257                       # Number of loads that had data forwarded from stores
system.cpu.iew.lsq.thread0.invAddrLoads             0                       # Number of loads ignored due to an invalid address
system.cpu.iew.lsq.thread0.specTotalWindowLoadsCyclesHist::bucket_size           64                      
system.cpu.iew.lsq.thread0.specTotalWindowLoadsCyclesHist::max_bucket         6399                      
system.cpu.iew.lsq.thread0.specTotalWindowLoadsCyclesHist::samples      5235427                      
system.cpu.iew.lsq.thread0.specTotalWindowLoadsCyclesHist::mean     7.071838                      
system.cpu.iew.lsq.thread0.specTotalWindowLoadsCyclesHist::gmean     5.633413                      
system.cpu.iew.lsq.thread0.specTotalWindowLoadsCyclesHist::stdev    29.128612                      
system.cpu.iew.lsq.thread0.specTotalWindowLoadsCyclesHist |     5213361     99.58%     99.58% |           3      0.00%     99.58% |       17885      0.34%     99.92% |          48      0.00%     99.92% |           9      0.00%     99.92% |          19      0.00%     99.92% |          24      0.00%     99.92% |          50      0.00%     99.92% |         354      0.01%     99.93% |         895      0.02%     99.95% |         260      0.00%     99.95% |           0      0.00%     99.95% |           0      0.00%     99.95% |           0      0.00%     99.95% |           0      0.00%     99.95% |           0      0.00%     99.95% |           0      0.00%     99.95% |           1      0.00%     99.95% |        2517      0.05%    100.00% |           0      0.00%    100.00% |           0      0.00%    100.00% |           0      0.00%    100.00% |           0      0.00%    100.00% |           0      0.00%    100.00% |           0      0.00%    100.00% |           0      0.00%    100.00% |           0      0.00%    100.00% |           0      0.00%    100.00% |           0      0.00%    100.00% |           0      0.00%    100.00% |           0      0.00%    100.00% |           0      0.00%    100.00% |           0      0.00%    100.00% |           0      0.00%    100.00% |           0      0.00%    100.00% |           0      0.00%    100.00% |           0      0.00%    100.00% |           0      0.00%    100.00% |           0      0.00%    100.00% |           0      0.00%    100.00% |           0      0.00%    100.00% |           0      0.00%    100.00% |           0      0.00%    100.00% |           0      0.00%    100.00% |           0      0.00%    100.00% |           0      0.00%    100.00% |           0      0.00%    100.00% |           0      0.00%    100.00% |           0      0.00%    100.00% |           0      0.00%    100.00% |           1      0.00%    100.00% |           0      0.00%    100.00% |           0      0.00%    100.00% |           0      0.00%    100.00% |           0      0.00%    100.00% |           0      0.00%    100.00% |           0      0.00%    100.00% |           0      0.00%    100.00% |           0      0.00%    100.00% |           0      0.00%    100.00% |           0      0.00%    100.00% |           0      0.00%    100.00% |           0      0.00%    100.00% |           0      0.00%    100.00% |           0      0.00%    100.00% |           0      0.00%    100.00% |           0      0.00%    100.00% |           0      0.00%    100.00% |           0      0.00%    100.00% |           0      0.00%    100.00% |           0      0.00%    100.00% |           0      0.00%    100.00% |           0      0.00%    100.00% |           0      0.00%    100.00% |           0      0.00%    100.00% |           0      0.00%    100.00% |           0      0.00%    100.00% |           0      0.00%    100.00% |           0      0.00%    100.00% |           0      0.00%    100.00% |           0      0.00%    100.00% |           0      0.00%    100.00% |           0      0.00%    100.00% |           0      0.00%    100.00% |           0      0.00%    100.00% |           0      0.00%    100.00% |           0      0.00%    100.00% |           0      0.00%    100.00% |           0      0.00%    100.00% |           0      0.00%    100.00% |           0      0.00%    100.00% |           0      0.00%    100.00% |           0      0.00%    100.00% |           0      0.00%    100.00% |           0      0.00%    100.00% |           0      0.00%    100.00% |           0      0.00%    100.00% |           0      0.00%    100.00% |           0      0.00%    100.00% |           0      0.00%    100.00%
system.cpu.iew.lsq.thread0.specTotalWindowLoadsCyclesHist::total      5235427                      
system.cpu.iew.lsq.thread0.spectreWindowLoadsCyclesHist::bucket_size            1                      
system.cpu.iew.lsq.thread0.spectreWindowLoadsCyclesHist::max_bucket           99                      
system.cpu.iew.lsq.thread0.spectreWindowLoadsCyclesHist::samples      5235427                      
system.cpu.iew.lsq.thread0.spectreWindowLoadsCyclesHist |     5235427    100.00%    100.00% |           0      0.00%    100.00% |           0      0.00%    100.00% |           0      0.00%    100.00% |           0      0.00%    100.00% |           0      0.00%    100.00% |           0      0.00%    100.00% |           0      0.00%    100.00% |           0      0.00%    100.00% |           0      0.00%    100.00% |           0      0.00%    100.00% |           0      0.00%    100.00% |           0      0.00%    100.00% |           0      0.00%    100.00% |           0      0.00%    100.00% |           0      0.00%    100.00% |           0      0.00%    100.00% |           0      0.00%    100.00% |           0      0.00%    100.00% |           0      0.00%    100.00% |           0      0.00%    100.00% |           0      0.00%    100.00% |           0      0.00%    100.00% |           0      0.00%    100.00% |           0      0.00%    100.00% |           0      0.00%    100.00% |           0      0.00%    100.00% |           0      0.00%    100.00% |           0      0.00%    100.00% |           0      0.00%    100.00% |           0      0.00%    100.00% |           0      0.00%    100.00% |           0      0.00%    100.00% |           0      0.00%    100.00% |           0      0.00%    100.00% |           0      0.00%    100.00% |           0      0.00%    100.00% |           0      0.00%    100.00% |           0      0.00%    100.00% |           0      0.00%    100.00% |           0      0.00%    100.00% |           0      0.00%    100.00% |           0      0.00%    100.00% |           0      0.00%    100.00% |           0      0.00%    100.00% |           0      0.00%    100.00% |           0      0.00%    100.00% |           0      0.00%    100.00% |           0      0.00%    100.00% |           0      0.00%    100.00% |           0      0.00%    100.00% |           0      0.00%    100.00% |           0      0.00%    100.00% |           0      0.00%    100.00% |           0      0.00%    100.00% |           0      0.00%    100.00% |           0      0.00%    100.00% |           0      0.00%    100.00% |           0      0.00%    100.00% |           0      0.00%    100.00% |           0      0.00%    100.00% |           0      0.00%    100.00% |           0      0.00%    100.00% |           0      0.00%    100.00% |           0      0.00%    100.00% |           0      0.00%    100.00% |           0      0.00%    100.00% |           0      0.00%    100.00% |           0      0.00%    100.00% |           0      0.00%    100.00% |           0      0.00%    100.00% |           0      0.00%    100.00% |           0      0.00%    100.00% |           0      0.00%    100.00% |           0      0.00%    100.00% |           0      0.00%    100.00% |           0      0.00%    100.00% |           0      0.00%    100.00% |           0      0.00%    100.00% |           0      0.00%    100.00% |           0      0.00%    100.00% |           0      0.00%    100.00% |           0      0.00%    100.00% |           0      0.00%    100.00% |           0      0.00%    100.00% |           0      0.00%    100.00% |           0      0.00%    100.00% |           0      0.00%    100.00% |           0      0.00%    100.00% |           0      0.00%    100.00% |           0      0.00%    100.00% |           0      0.00%    100.00% |           0      0.00%    100.00% |           0      0.00%    100.00% |           0      0.00%    100.00% |           0      0.00%    100.00% |           0      0.00%    100.00% |           0      0.00%    100.00% |           0      0.00%    100.00% |           0      0.00%    100.00%
system.cpu.iew.lsq.thread0.spectreWindowLoadsCyclesHist::total      5235427                      
system.cpu.iew.lsq.thread0.cleanupSquashTimeCycles            0                       # Time taken to execute cleanup squash (in cycles)
system.cpu.iew.lsq.thread0.cleanupSquashTimeWaitingCycles            0                       # Time taken waiting for cleanup squash to begin while correct path executes (in cycles)
system.cpu.iew.lsq.thread0.commitLoads        5215620                       # Number of Loads Committed
system.cpu.iew.lsq.thread0.commitLoadsHitSpec            4                       # Number of Loads Committed that Hit on Speculated Reordered Loads
system.cpu.iew.lsq.thread0.commitLoadsHitSpecGainedCycles           32                       # Number of Cycles Gained by Loads Committed that Hit on Speculated Reordered Loads
system.cpu.iew.lsq.thread0.cleanupSquashNum            0                       # Number of Cleanup Squashes
system.cpu.iew.lsq.thread0.squashEvents        137509                       # Number of Squash Events in Processor, that trigger Cleanup
system.cpu.iew.lsq.thread0.squashedLoadsTot      2196748                       # Number of loads squashed
system.cpu.iew.lsq.thread0.squashedLoadsNotIssued            0                       # Number of loads squashed before request sent to memory system
system.cpu.iew.lsq.thread0.squashedLoadsSplitReq            0                       # Number of loads (with Split Requests) squashed
system.cpu.iew.lsq.thread0.squashedLoadsExec_L1Hits            0                       # Number of loads (L1Hits) squashed after data received
system.cpu.iew.lsq.thread0.squashedLoadsExec_L2Hits            0                       # Number of loads (L2Hits) squashed after data received
system.cpu.iew.lsq.thread0.squashedLoadsExec_L2Miss            0                       # Number of loads (L2Miss) squashed after data received
system.cpu.iew.lsq.thread0.squashedLoadsExec_NoHitWhere            0                       # Number of loads squashed after data received but no HitWhere, returned through writeCallback on a likely RMW 
system.cpu.iew.lsq.thread0.squashedLoadsInflight_L1Hits            0                       # Number of loads squashed while in-flight - L1 Hits
system.cpu.iew.lsq.thread0.squashedLoadsInflight_L2Hits            0                       # Number of loads squashed while in-flight L2 Hits
system.cpu.iew.lsq.thread0.squashedLoadsInflight_L2Miss            0                       # Number of loads squashed while in-flight L2 Miss
system.cpu.iew.lsq.thread0.squashedLoadsInflight_NoHitWhere            0                       # Number of loads squashed inflight with no HitWhere, returned through writeCallback on a likely RMW 
system.cpu.iew.lsq.thread0.squashedLoadsExec_Tot            0                       # Number of loads squashed after data received
system.cpu.iew.lsq.thread0.squashedLoadsInflight_Tot            0                       # Number of loads squashed while in-flight
system.cpu.iew.lsq.thread0.LoadsSplit           34683                       # Number of loads that are Split
system.cpu.iew.lsq.thread0.ignoredResponses            0                       # Number of memory responses ignored because the instruction is squashed
system.cpu.iew.lsq.thread0.memOrderViolation        19673                       # Number of memory ordering violations
system.cpu.iew.lsq.thread0.squashedStores       823539                       # Number of stores squashed
system.cpu.iew.lsq.thread0.invAddrSwpfs             0                       # Number of software prefetches ignored due to an invalid address
system.cpu.iew.lsq.thread0.blockedLoads             0                       # Number of blocked loads due to partial load-store forwarding
system.cpu.iew.lsq.thread0.rescheduledLoads            0                       # Number of loads that were rescheduled
system.cpu.iew.lsq.thread0.cacheBlocked       3565720                       # Number of times an access to memory failed due to the cache being blocked
system.cpu.iew.lsq.thread0.specBuffHits             0                       # Number of times an access hits in speculative buffer
system.cpu.iew.lsq.thread0.specBuffMisses            0                       # Number of times an access misses in speculative buffer
system.cpu.iew.lsq.thread0.numValidates             0                       # Number of validates sent to cache
system.cpu.iew.lsq.thread0.numExposes               0                       # Number of exposes sent to cache
system.cpu.iew.lsq.thread0.numConvertedExposes            0                       # Number of exposes converted from validation
system.cpu.iew.iewIdleCycles                        0                       # Number of cycles IEW is idle
system.cpu.iew.iewSquashCycles                 137509                       # Number of cycles IEW is squashing
system.cpu.iew.iewBlockCycles                 5211967                       # Number of cycles IEW is blocking
system.cpu.iew.iewUnblockCycles                658721                       # Number of cycles IEW is unblocking
system.cpu.iew.iewDispatchedInsts            53106473                       # Number of instructions dispatched to IQ
system.cpu.iew.iewDispSquashedInsts              3392                       # Number of squashed instructions skipped by dispatch
system.cpu.iew.iewDispLoadInsts               7919584                       # Number of dispatched load instructions
system.cpu.iew.iewDispStoreInsts              4989357                       # Number of dispatched store instructions
system.cpu.iew.iewDispNonSpecInsts                316                       # Number of dispatched non-speculative instructions
system.cpu.iew.iewIQFullEvents                 505035                       # Number of times the IQ has become full, causing a stall
system.cpu.iew.iewLSQFullEvents                 13530                       # Number of times the LSQ has become full, causing a stall
system.cpu.iew.memOrderViolationEvents          19673                       # Number of memory order violations
system.cpu.iew.predictedTakenIncorrect          67045                       # Number of branches that were predicted taken incorrectly
system.cpu.iew.predictedNotTakenIncorrect        88789                       # Number of branches that were predicted not taken incorrectly
system.cpu.iew.branchMispredicts               155834                       # Number of branch mispredicts detected at execute
system.cpu.iew.iewExecutedInsts              48912720                       # Number of executed instructions
system.cpu.iew.iewExecLoadInsts               7620243                       # Number of load instructions executed
system.cpu.iew.iewExecSquashedInsts            277347                       # Number of squashed instructions skipped in execute
system.cpu.iew.exec_swp                             0                       # number of swp insts executed
system.cpu.iew.exec_nop                             0                       # number of nop insts executed
system.cpu.iew.exec_refs                     11965273                       # number of memory reference insts executed
system.cpu.iew.exec_branches                  4277495                       # Number of branches executed
system.cpu.iew.exec_stores                    4345030                       # Number of stores executed
system.cpu.iew.exec_rate                     1.194100                       # Inst execution rate
system.cpu.iew.wb_sent                       47035162                       # cumulative count of insts sent to commit
system.cpu.iew.wb_count                      46998395                       # cumulative count of insts written-back
system.cpu.iew.wb_producers                  32606678                       # num instructions producing a value
system.cpu.iew.wb_consumers                  57683638                       # num instructions consuming a value
system.cpu.iew.wb_rate                       1.147366                       # insts written-back per cycle
system.cpu.iew.wb_fanout                     0.565267                       # average fanout of values written-back
system.cpu.commit.commitSquashedInsts         9913220                       # The number of squashed insts skipped by commit
system.cpu.commit.commitNonSpecStalls           19562                       # The number of times commit has been forced to stall to communicate backwards
system.cpu.commit.branchMispredicts            117835                       # The number of times a branch was mispredicted
system.cpu.commit.loadHitInvalidations              0                       # The number of times a load hits a invalidation
system.cpu.commit.loadHitExternalEvictions            0                       # The number of times a load hits an external invalidation
system.cpu.commit.loadValidationFails               0                       # The number of times a load fails validation
system.cpu.commit.validationStalls                  0                       # The number of ticks the commit is stalled due to waiting for validation responses
system.cpu.commit.committed_per_cycle::samples     39604346                       # Number of insts commited each cycle
system.cpu.commit.committed_per_cycle::mean     1.090617                       # Number of insts commited each cycle
system.cpu.commit.committed_per_cycle::stdev     1.858440                       # Number of insts commited each cycle
system.cpu.commit.committed_per_cycle::underflows            0      0.00%      0.00% # Number of insts commited each cycle
system.cpu.commit.committed_per_cycle::0     22943714     57.93%     57.93% # Number of insts commited each cycle
system.cpu.commit.committed_per_cycle::1      6904939     17.43%     75.37% # Number of insts commited each cycle
system.cpu.commit.committed_per_cycle::2      3683141      9.30%     84.67% # Number of insts commited each cycle
system.cpu.commit.committed_per_cycle::3      2705822      6.83%     91.50% # Number of insts commited each cycle
system.cpu.commit.committed_per_cycle::4       863419      2.18%     93.68% # Number of insts commited each cycle
system.cpu.commit.committed_per_cycle::5       617623      1.56%     95.24% # Number of insts commited each cycle
system.cpu.commit.committed_per_cycle::6       152751      0.39%     95.62% # Number of insts commited each cycle
system.cpu.commit.committed_per_cycle::7       517303      1.31%     96.93% # Number of insts commited each cycle
system.cpu.commit.committed_per_cycle::8      1215634      3.07%    100.00% # Number of insts commited each cycle
system.cpu.commit.committed_per_cycle::overflows            0      0.00%    100.00% # Number of insts commited each cycle
system.cpu.commit.committed_per_cycle::min_value            0                       # Number of insts commited each cycle
system.cpu.commit.committed_per_cycle::max_value            8                       # Number of insts commited each cycle
system.cpu.commit.committed_per_cycle::total     39604346                       # Number of insts commited each cycle
system.cpu.commit.committedInsts             22492750                       # Number of instructions committed
system.cpu.commit.committedOps               43193177                       # Number of ops (including micro ops) committed
system.cpu.commit.swp_count                         0                       # Number of s/w prefetches committed
system.cpu.commit.refs                        9888632                       # Number of memory references committed
system.cpu.commit.loads                       5722820                       # Number of loads committed
system.cpu.commit.membars                       19448                       # Number of memory barriers committed
system.cpu.commit.branches                    4087760                       # Number of branches committed
system.cpu.commit.vec_insts                         0                       # Number of committed Vector instructions.
system.cpu.commit.fp_insts                    1206174                       # Number of committed floating point instructions.
system.cpu.commit.int_insts                  42036697                       # Number of committed integer instructions.
system.cpu.commit.function_calls               297897                       # Number of function calls committed.
system.cpu.commit.op_class_0::No_OpClass       192470      0.45%      0.45% # Class of committed instruction
system.cpu.commit.op_class_0::IntAlu         31927030     73.92%     74.36% # Class of committed instruction
system.cpu.commit.op_class_0::IntMult          118103      0.27%     74.64% # Class of committed instruction
system.cpu.commit.op_class_0::IntDiv           123858      0.29%     74.92% # Class of committed instruction
system.cpu.commit.op_class_0::FloatAdd         943036      2.18%     77.11% # Class of committed instruction
system.cpu.commit.op_class_0::FloatCmp              0      0.00%     77.11% # Class of committed instruction
system.cpu.commit.op_class_0::FloatCvt             48      0.00%     77.11% # Class of committed instruction
system.cpu.commit.op_class_0::FloatMult             0      0.00%     77.11% # Class of committed instruction
system.cpu.commit.op_class_0::FloatMultAcc            0      0.00%     77.11% # Class of committed instruction
system.cpu.commit.op_class_0::FloatDiv              0      0.00%     77.11% # Class of committed instruction
system.cpu.commit.op_class_0::FloatMisc             0      0.00%     77.11% # Class of committed instruction
system.cpu.commit.op_class_0::FloatSqrt             0      0.00%     77.11% # Class of committed instruction
system.cpu.commit.op_class_0::SimdAdd               0      0.00%     77.11% # Class of committed instruction
system.cpu.commit.op_class_0::SimdAddAcc            0      0.00%     77.11% # Class of committed instruction
system.cpu.commit.op_class_0::SimdAlu               0      0.00%     77.11% # Class of committed instruction
system.cpu.commit.op_class_0::SimdCmp               0      0.00%     77.11% # Class of committed instruction
system.cpu.commit.op_class_0::SimdCvt               0      0.00%     77.11% # Class of committed instruction
system.cpu.commit.op_class_0::SimdMisc              0      0.00%     77.11% # Class of committed instruction
system.cpu.commit.op_class_0::SimdMult              0      0.00%     77.11% # Class of committed instruction
system.cpu.commit.op_class_0::SimdMultAcc            0      0.00%     77.11% # Class of committed instruction
system.cpu.commit.op_class_0::SimdShift             0      0.00%     77.11% # Class of committed instruction
system.cpu.commit.op_class_0::SimdShiftAcc            0      0.00%     77.11% # Class of committed instruction
system.cpu.commit.op_class_0::SimdSqrt              0      0.00%     77.11% # Class of committed instruction
system.cpu.commit.op_class_0::SimdFloatAdd            0      0.00%     77.11% # Class of committed instruction
system.cpu.commit.op_class_0::SimdFloatAlu            0      0.00%     77.11% # Class of committed instruction
system.cpu.commit.op_class_0::SimdFloatCmp            0      0.00%     77.11% # Class of committed instruction
system.cpu.commit.op_class_0::SimdFloatCvt            0      0.00%     77.11% # Class of committed instruction
system.cpu.commit.op_class_0::SimdFloatDiv            0      0.00%     77.11% # Class of committed instruction
system.cpu.commit.op_class_0::SimdFloatMisc            0      0.00%     77.11% # Class of committed instruction
system.cpu.commit.op_class_0::SimdFloatMult            0      0.00%     77.11% # Class of committed instruction
system.cpu.commit.op_class_0::SimdFloatMultAcc            0      0.00%     77.11% # Class of committed instruction
system.cpu.commit.op_class_0::SimdFloatSqrt            0      0.00%     77.11% # Class of committed instruction
system.cpu.commit.op_class_0::MemRead         5617008     13.00%     90.11% # Class of committed instruction
system.cpu.commit.op_class_0::MemWrite        4165396      9.64%     99.75% # Class of committed instruction
system.cpu.commit.op_class_0::FloatMemRead       105812      0.24%    100.00% # Class of committed instruction
system.cpu.commit.op_class_0::FloatMemWrite          416      0.00%    100.00% # Class of committed instruction
system.cpu.commit.op_class_0::IprAccess             0      0.00%    100.00% # Class of committed instruction
system.cpu.commit.op_class_0::InstPrefetch            0      0.00%    100.00% # Class of committed instruction
system.cpu.commit.op_class_0::total          43193177                       # Class of committed instruction
system.cpu.commit.bw_lim_events               1215634                       # number cycles where commit BW limit reached
system.cpu.rob.rob_reads                     91495109                       # The number of ROB reads
system.cpu.rob.rob_writes                   107510565                       # The number of ROB writes
system.cpu.timesIdled                             656                       # Number of times that the entire CPU went into an idle state and unscheduled itself
system.cpu.idleCycles                           60727                       # Total number of cycles that the CPU has spent unscheduled due to idling
system.cpu.committedInsts                    22492750                       # Number of Instructions Simulated
system.cpu.committedOps                      43193177                       # Number of Ops (including micro ops) Simulated
system.cpu.cpi                               1.821120                       # CPI: Cycles Per Instruction
system.cpu.cpi_total                         1.821120                       # CPI: Total CPI of All Threads
system.cpu.ipc                               0.549113                       # IPC: Instructions Per Cycle
system.cpu.ipc_total                         0.549113                       # IPC: Total IPC of All Threads
system.cpu.int_regfile_reads                 72209383                       # number of integer regfile reads
system.cpu.int_regfile_writes                37507511                       # number of integer regfile writes
system.cpu.fp_regfile_reads                   2152649                       # number of floating regfile reads
system.cpu.fp_regfile_writes                  1101965                       # number of floating regfile writes
system.cpu.cc_regfile_reads                  24425168                       # number of cc regfile reads
system.cpu.cc_regfile_writes                 14196954                       # number of cc regfile writes
system.cpu.misc_regfile_reads                21244783                       # number of misc regfile reads
system.cpu.misc_regfile_writes                     27                       # number of misc regfile writes
system.ruby.clk_domain.clock                      500                       # Clock period in ticks
system.ruby.pwrStateResidencyTicks::UNDEFINED  20481002500                       # Cumulative time (in ticks) in various power states
system.ruby.delayHist::bucket_size                  4                       # delay histogram for all message
system.ruby.delayHist::max_bucket                  39                       # delay histogram for all message
[...]
system.ruby.delayVCHist.vnet_1::mean         0.005304                       # delay histogram for vnet_1
system.ruby.delayVCHist.vnet_1::stdev        0.234402                       # delay histogram for vnet_1
system.ruby.delayVCHist.vnet_1           |       95334     99.94%     99.94% |          24      0.03%     99.96% |          26      0.03%     99.99% |           4      0.00%     99.99% |           4      0.00%    100.00% |           1      0.00%    100.00% |           1      0.00%    100.00% |           0      0.00%    100.00% |           0      0.00%    100.00% |           0      0.00%    100.00% # delay histogram for vnet_1
system.ruby.delayVCHist.vnet_1::total           95394                       # delay histogram for vnet_1
system.ruby.LD.latency_hist_seqr::bucket_size          512                      
system.ruby.LD.latency_hist_seqr::max_bucket         5119                      
system.ruby.LD.latency_hist_seqr::samples      4972294                      
system.ruby.LD.latency_hist_seqr::mean       2.240817                      
system.ruby.LD.latency_hist_seqr::gmean      1.023045                      
system.ruby.LD.latency_hist_seqr::stdev     29.404642                      
system.ruby.LD.latency_hist_seqr         |     4968349     99.92%     99.92% |        1497      0.03%     99.95% |        2447      0.05%    100.00% |           0      0.00%    100.00% |           0      0.00%    100.00% |           0      0.00%    100.00% |           1      0.00%    100.00% |           0      0.00%    100.00% |           0      0.00%    100.00% |           0      0.00%    100.00%
system.ruby.LD.latency_hist_seqr::total       4972294                      
system.ruby.LD.hit_latency_hist_seqr::bucket_size            1                      
system.ruby.LD.hit_latency_hist_seqr::max_bucket            9                      
system.ruby.LD.hit_latency_hist_seqr::samples      4950512                      
system.ruby.LD.hit_latency_hist_seqr::mean     1.000006                      
system.ruby.LD.hit_latency_hist_seqr::gmean     1.000004                      
system.ruby.LD.hit_latency_hist_seqr::stdev     0.002378                      
system.ruby.LD.hit_latency_hist_seqr     |           0      0.00%      0.00% |     4950484    100.00%    100.00% |          28      0.00%    100.00% |           0      0.00%    100.00% |           0      0.00%    100.00% |           0      0.00%    100.00% |           0      0.00%    100.00% |           0      0.00%    100.00% |           0      0.00%    100.00% |           0      0.00%    100.00%
system.ruby.LD.hit_latency_hist_seqr::total      4950512                      
system.ruby.LD.miss_latency_hist_seqr::bucket_size          512                      
system.ruby.LD.miss_latency_hist_seqr::max_bucket         5119                      
system.ruby.LD.miss_latency_hist_seqr::samples        21782                      
system.ruby.LD.miss_latency_hist_seqr::mean   284.246626                      
system.ruby.LD.miss_latency_hist_seqr::gmean   181.292359                      
system.ruby.LD.miss_latency_hist_seqr::stdev   342.786484                      
system.ruby.LD.miss_latency_hist_seqr    |       17837     81.89%     81.89% |        1497      6.87%     88.76% |        2447     11.23%    100.00% |           0      0.00%    100.00% |           0      0.00%    100.00% |           0      0.00%    100.00% |           1      0.00%    100.00% |           0      0.00%    100.00% |           0      0.00%    100.00% |           0      0.00%    100.00%
system.ruby.LD.miss_latency_hist_seqr::total        21782                      
system.ruby.ST.latency_hist_seqr::bucket_size          128                      
system.ruby.ST.latency_hist_seqr::max_bucket         1279                      
system.ruby.ST.latency_hist_seqr::samples      4151556                      
system.ruby.ST.latency_hist_seqr::mean       1.123667                      
system.ruby.ST.latency_hist_seqr::gmean      1.005997                      
system.ruby.ST.latency_hist_seqr::stdev      6.892528                      
system.ruby.ST.latency_hist_seqr         |     4148901     99.94%     99.94% |        2464      0.06%    100.00% |          80      0.00%    100.00% |           2      0.00%    100.00% |           9      0.00%    100.00% |           3      0.00%    100.00% |           0      0.00%    100.00% |           0      0.00%    100.00% |           0      0.00%    100.00% |          97      0.00%    100.00%
system.ruby.ST.latency_hist_seqr::total       4151556                      
system.ruby.ST.hit_latency_hist_seqr::bucket_size            1                      
system.ruby.ST.hit_latency_hist_seqr::max_bucket            9                      
system.ruby.ST.hit_latency_hist_seqr::samples      4148023                      
system.ruby.ST.hit_latency_hist_seqr::mean     1.003277                      
system.ruby.ST.hit_latency_hist_seqr::gmean     1.002274                      
system.ruby.ST.hit_latency_hist_seqr::stdev     0.057147                      
system.ruby.ST.hit_latency_hist_seqr     |           0      0.00%      0.00% |     4134432     99.67%     99.67% |       13591      0.33%    100.00% |           0      0.00%    100.00% |           0      0.00%    100.00% |           0      0.00%    100.00% |           0      0.00%    100.00% |           0      0.00%    100.00% |           0      0.00%    100.00% |           0      0.00%    100.00%
system.ruby.ST.hit_latency_hist_seqr::total      4148023                      
system.ruby.ST.miss_latency_hist_seqr::bucket_size          128                      
system.ruby.ST.miss_latency_hist_seqr::max_bucket         1279                      
system.ruby.ST.miss_latency_hist_seqr::samples         3533                      
system.ruby.ST.miss_latency_hist_seqr::mean   142.471554                      
system.ruby.ST.miss_latency_hist_seqr::gmean    78.237972                      
system.ruby.ST.miss_latency_hist_seqr::stdev   189.300016                      
system.ruby.ST.miss_latency_hist_seqr    |         878     24.85%     24.85% |        2464     69.74%     94.59% |          80      2.26%     96.86% |           2      0.06%     96.91% |           9      0.25%     97.17% |           3      0.08%     97.25% |           0      0.00%     97.25% |           0      0.00%     97.25% |           0      0.00%     97.25% |          97      2.75%    100.00%
system.ruby.ST.miss_latency_hist_seqr::total         3533                      
system.ruby.IFETCH.latency_hist_seqr::bucket_size          512                      
system.ruby.IFETCH.latency_hist_seqr::max_bucket         5119                      
system.ruby.IFETCH.latency_hist_seqr::samples      3984778                      
system.ruby.IFETCH.latency_hist_seqr::mean     1.043718                      
system.ruby.IFETCH.latency_hist_seqr::gmean     1.001474                      
system.ruby.IFETCH.latency_hist_seqr::stdev     3.795203                      
system.ruby.IFETCH.latency_hist_seqr     |     3984761    100.00%    100.00% |          13      0.00%    100.00% |           3      0.00%    100.00% |           0      0.00%    100.00% |           0      0.00%    100.00% |           0      0.00%    100.00% |           0      0.00%    100.00% |           0      0.00%    100.00% |           0      0.00%    100.00% |           1      0.00%    100.00%
system.ruby.IFETCH.latency_hist_seqr::total      3984778                      
system.ruby.IFETCH.hit_latency_hist_seqr::bucket_size            1                      
system.ruby.IFETCH.hit_latency_hist_seqr::max_bucket            9                      
system.ruby.IFETCH.hit_latency_hist_seqr::samples      3983554                      
system.ruby.IFETCH.hit_latency_hist_seqr::mean     1.000000                      
system.ruby.IFETCH.hit_latency_hist_seqr::gmean     1.000000                      
system.ruby.IFETCH.hit_latency_hist_seqr::stdev     0.000501                      
system.ruby.IFETCH.hit_latency_hist_seqr |           0      0.00%      0.00% |     3983553    100.00%    100.00% |           1      0.00%    100.00% |           0      0.00%    100.00% |           0      0.00%    100.00% |           0      0.00%    100.00% |           0      0.00%    100.00% |           0      0.00%    100.00% |           0      0.00%    100.00% |           0      0.00%    100.00%
system.ruby.IFETCH.hit_latency_hist_seqr::total      3983554                      
system.ruby.IFETCH.miss_latency_hist_seqr::bucket_size          512                      
system.ruby.IFETCH.miss_latency_hist_seqr::max_bucket         5119                      
system.ruby.IFETCH.miss_latency_hist_seqr::samples         1224                      
system.ruby.IFETCH.miss_latency_hist_seqr::mean   143.325163                      
system.ruby.IFETCH.miss_latency_hist_seqr::gmean   120.920882                      
system.ruby.IFETCH.miss_latency_hist_seqr::stdev   163.287752                      
system.ruby.IFETCH.miss_latency_hist_seqr |        1207     98.61%     98.61% |          13      1.06%     99.67% |           3      0.25%     99.92% |           0      0.00%     99.92% |           0      0.00%     99.92% |           0      0.00%     99.92% |           0      0.00%     99.92% |           0      0.00%     99.92% |           0      0.00%     99.92% |           1      0.08%    100.00%
system.ruby.IFETCH.miss_latency_hist_seqr::total         1224                      
system.ruby.RMW_Read.latency_hist_seqr::bucket_size           16                      
system.ruby.RMW_Read.latency_hist_seqr::max_bucket          159                      
system.ruby.RMW_Read.latency_hist_seqr::samples       297817                      
system.ruby.RMW_Read.latency_hist_seqr::mean     1.002448                      
system.ruby.RMW_Read.latency_hist_seqr::gmean     1.000116                      
system.ruby.RMW_Read.latency_hist_seqr::stdev     0.563062                      
system.ruby.RMW_Read.latency_hist_seqr   |      297812    100.00%    100.00% |           0      0.00%    100.00% |           0      0.00%    100.00% |           0      0.00%    100.00% |           0      0.00%    100.00% |           0      0.00%    100.00% |           0      0.00%    100.00% |           0      0.00%    100.00% |           4      0.00%    100.00% |           1      0.00%    100.00%
system.ruby.RMW_Read.latency_hist_seqr::total       297817                      
system.ruby.RMW_Read.hit_latency_hist_seqr::bucket_size            1                      
system.ruby.RMW_Read.hit_latency_hist_seqr::max_bucket            9                      
system.ruby.RMW_Read.hit_latency_hist_seqr::samples       297808                      
system.ruby.RMW_Read.hit_latency_hist_seqr::mean            1                      
system.ruby.RMW_Read.hit_latency_hist_seqr::gmean            1                      
system.ruby.RMW_Read.hit_latency_hist_seqr |           0      0.00%      0.00% |      297808    100.00%    100.00% |           0      0.00%    100.00% |           0      0.00%    100.00% |           0      0.00%    100.00% |           0      0.00%    100.00% |           0      0.00%    100.00% |           0      0.00%    100.00% |           0      0.00%    100.00% |           0      0.00%    100.00%
system.ruby.RMW_Read.hit_latency_hist_seqr::total       297808                      
system.ruby.RMW_Read.miss_latency_hist_seqr::bucket_size           16                      
system.ruby.RMW_Read.miss_latency_hist_seqr::max_bucket          159                      
system.ruby.RMW_Read.miss_latency_hist_seqr::samples            9                      
system.ruby.RMW_Read.miss_latency_hist_seqr::mean           82                      
system.ruby.RMW_Read.miss_latency_hist_seqr::gmean    46.351582                      
system.ruby.RMW_Read.miss_latency_hist_seqr::stdev    66.494361                      
system.ruby.RMW_Read.miss_latency_hist_seqr |           4     44.44%     44.44% |           0      0.00%     44.44% |           0      0.00%     44.44% |           0      0.00%     44.44% |           0      0.00%     44.44% |           0      0.00%     44.44% |           0      0.00%     44.44% |           0      0.00%     44.44% |           4     44.44%     88.89% |           1     11.11%    100.00%
system.ruby.RMW_Read.miss_latency_hist_seqr::total            9                      
system.ruby.FLUSH.latency_hist_seqr::bucket_size            2                      
system.ruby.FLUSH.latency_hist_seqr::max_bucket           19                      
system.ruby.FLUSH.latency_hist_seqr::samples        19448                      
system.ruby.FLUSH.latency_hist_seqr::mean     1.000514                      
system.ruby.FLUSH.latency_hist_seqr::gmean     1.000123                      
system.ruby.FLUSH.latency_hist_seqr::stdev     0.071707                      
system.ruby.FLUSH.latency_hist_seqr      |       19447     99.99%     99.99% |           0      0.00%     99.99% |           0      0.00%     99.99% |           0      0.00%     99.99% |           0      0.00%     99.99% |           1      0.01%    100.00% |           0      0.00%    100.00% |           0      0.00%    100.00% |           0      0.00%    100.00% |           0      0.00%    100.00%
system.ruby.FLUSH.latency_hist_seqr::total        19448                      
system.ruby.FLUSH.hit_latency_hist_seqr::bucket_size            2                      
system.ruby.FLUSH.hit_latency_hist_seqr::max_bucket           19                      
system.ruby.FLUSH.hit_latency_hist_seqr::samples        19448                      
system.ruby.FLUSH.hit_latency_hist_seqr::mean     1.000514                      
system.ruby.FLUSH.hit_latency_hist_seqr::gmean     1.000123                      
system.ruby.FLUSH.hit_latency_hist_seqr::stdev     0.071707                      
system.ruby.FLUSH.hit_latency_hist_seqr  |       19447     99.99%     99.99% |           0      0.00%     99.99% |           0      0.00%     99.99% |           0      0.00%     99.99% |           0      0.00%     99.99% |           1      0.01%    100.00% |           0      0.00%    100.00% |           0      0.00%    100.00% |           0      0.00%    100.00% |           0      0.00%    100.00%
system.ruby.FLUSH.hit_latency_hist_seqr::total        19448                      
system.ruby.Directory_Controller.Fetch          25099      0.00%      0.00%
system.ruby.Directory_Controller.Data             256      0.00%      0.00%
system.ruby.Directory_Controller.Memory_Data        25099      0.00%      0.00%
system.ruby.Directory_Controller.Memory_Ack          256      0.00%      0.00%
system.ruby.Directory_Controller.CleanReplacement        19192      0.00%      0.00%
system.ruby.Directory_Controller.I.Fetch        25099      0.00%      0.00%
system.ruby.Directory_Controller.M.Data           256      0.00%      0.00%
system.ruby.Directory_Controller.M.CleanReplacement        19192      0.00%      0.00%
system.ruby.Directory_Controller.IM.Memory_Data        25099      0.00%      0.00%
system.ruby.Directory_Controller.MI.Memory_Ack          256      0.00%      0.00%
system.ruby.L1Cache_Controller.Load           4972294      0.00%      0.00%
system.ruby.L1Cache_Controller.Ifetch         3984779      0.00%      0.00%
system.ruby.L1Cache_Controller.Store          4449373      0.00%      0.00%
system.ruby.L1Cache_Controller.L1_Replacement         3484      0.00%      0.00%
system.ruby.L1Cache_Controller.L1_Replacement_OnInstall        12060      0.00%      0.00%
system.ruby.L1Cache_Controller.Data_Exclusive        21781      0.00%      0.00%
system.ruby.L1Cache_Controller.Data_all_Acks         4767      0.00%      0.00%
system.ruby.L1Cache_Controller.AllocateLine_OnInstall        21782      0.00%      0.00%
system.ruby.L1Cache_Controller.WB_Ack           24299      0.00%      0.00%
system.ruby.L1Cache_Controller.Flush_L1L2         9468      0.00%      0.00%
system.ruby.L1Cache_Controller.Flush_L2          9981      0.00%      0.00%
system.ruby.L1Cache_Controller.NP.Load          21782      0.00%      0.00%
system.ruby.L1Cache_Controller.NP.Ifetch         1224      0.00%      0.00%
system.ruby.L1Cache_Controller.NP.Store          3542      0.00%      0.00%
system.ruby.L1Cache_Controller.NP.AllocateLine_OnInstall        21782      0.00%      0.00%
system.ruby.L1Cache_Controller.NP.Flush_L2         9981      0.00%      0.00%
system.ruby.L1Cache_Controller.S.Load               2      0.00%      0.00%
system.ruby.L1Cache_Controller.S.Ifetch       3983554      0.00%      0.00%
system.ruby.L1Cache_Controller.S.L1_Replacement          713      0.00%      0.00%
system.ruby.L1Cache_Controller.E.Load         1065857      0.00%      0.00%
system.ruby.L1Cache_Controller.E.Store             66      0.00%      0.00%
system.ruby.L1Cache_Controller.E.L1_Replacement         1381      0.00%      0.00%
system.ruby.L1Cache_Controller.E.L1_Replacement_OnInstall        10047      0.00%      0.00%
system.ruby.L1Cache_Controller.E.Flush_L1L2         9467      0.00%      0.00%
system.ruby.L1Cache_Controller.M.Load         3884653      0.00%      0.00%
system.ruby.L1Cache_Controller.M.Store        4445765      0.00%      0.00%
system.ruby.L1Cache_Controller.M.L1_Replacement         1390      0.00%      0.00%
system.ruby.L1Cache_Controller.M.L1_Replacement_OnInstall         2013      0.00%      0.00%
system.ruby.L1Cache_Controller.M.Flush_L1L2            1      0.00%      0.00%
system.ruby.L1Cache_Controller.IS.Data_Exclusive        21781      0.00%      0.00%
system.ruby.L1Cache_Controller.IS.Data_all_Acks         1225      0.00%      0.00%
system.ruby.L1Cache_Controller.IM.Data_all_Acks         3542      0.00%      0.00%
system.ruby.L1Cache_Controller.M_I.Ifetch            1      0.00%      0.00%
system.ruby.L1Cache_Controller.M_I.WB_Ack        24299      0.00%      0.00%
system.ruby.L2Cache_Controller.L1_GET_INSTR         1224      0.00%      0.00%
system.ruby.L2Cache_Controller.L1_GETS          21782      0.00%      0.00%
system.ruby.L2Cache_Controller.L1_GETX           3542      0.00%      0.00%
system.ruby.L2Cache_Controller.L1_PUTX          24299      0.00%      0.00%
system.ruby.L2Cache_Controller.Mem_Data         25099      0.00%      0.00%
system.ruby.L2Cache_Controller.Mem_Ack          19448      0.00%      0.00%
system.ruby.L2Cache_Controller.Exclusive_Unblock        25323      0.00%      0.00%
system.ruby.L2Cache_Controller.Flush_Invalidate          256      0.00%      0.00%
system.ruby.L2Cache_Controller.Flush_Invalidate_Clean        19192      0.00%      0.00%
system.ruby.L2Cache_Controller.NP.L1_GET_INSTR         1153      0.00%      0.00%
system.ruby.L2Cache_Controller.NP.L1_GETS        21266      0.00%      0.00%
system.ruby.L2Cache_Controller.NP.L1_GETX         2680      0.00%      0.00%
system.ruby.L2Cache_Controller.SS.L1_GET_INSTR           70      0.00%      0.00%
system.ruby.L2Cache_Controller.SS.L1_GETS            1      0.00%      0.00%
system.ruby.L2Cache_Controller.M.L1_GET_INSTR            1      0.00%      0.00%
system.ruby.L2Cache_Controller.M.L1_GETS          515      0.00%      0.00%
system.ruby.L2Cache_Controller.M.L1_GETX          862      0.00%      0.00%
system.ruby.L2Cache_Controller.M.Flush_Invalidate          256      0.00%      0.00%
system.ruby.L2Cache_Controller.M.Flush_Invalidate_Clean        19192      0.00%      0.00%
system.ruby.L2Cache_Controller.MT.L1_PUTX        24299      0.00%      0.00%
system.ruby.L2Cache_Controller.M_I.Mem_Ack        19448      0.00%      0.00%
system.ruby.L2Cache_Controller.ISS.Mem_Data        21266      0.00%      0.00%
system.ruby.L2Cache_Controller.IS.Mem_Data         1153      0.00%      0.00%
system.ruby.L2Cache_Controller.IM.Mem_Data         2680      0.00%      0.00%
system.ruby.L2Cache_Controller.MT_MB.Exclusive_Unblock        25323      0.00%      0.00%

---------- End Simulation Statistics   ----------
